[TITLE]


[JUNCTIONS]
;ID              	Elev        	Demand      	Pattern         
 145785          	108.81      	0.00        	generale2009    	;
 145786          	109.08      	0.00        	generale2009    	;
 145787          	109.07      	0.00        	generale2009    	;
 145788          	108.83      	0.00        	generale2009    	;
 148656          	108.71      	0.00        	generale2009    	;
 148657          	109.44      	0.00        	generale2009    	;
 148658          	109.40      	0.00        	generale2009    	;
 149376          	108.17      	0.00        	generale2009    	;
 149377          	107.86      	0.00        	generale2009    	;
 149378          	108.11      	0.00        	generale2009    	;
 149379          	108.35      	0.00        	generale2009    	;
 149380          	108.82      	0.00        	generale2009    	;
 149381          	108.81      	0.00        	generale2009    	;
 149382          	109.20      	0.00        	generale2009    	;
 149383          	109.38      	0.00        	generale2009    	;
 149384          	108.75      	0.00        	generale2009    	;
 149385          	109.22      	0.00        	generale2009    	;
 149386          	108.49      	0.00        	generale2009    	;
 149387          	109.41      	0.00        	generale2009    	;
 149388          	109.20      	0.00        	generale2009    	;
 149389          	110.20      	0.00        	generale2009    	;
 149390          	108.99      	0.00        	generale2009    	;
 149391          	108.12      	0.00        	generale2009    	;
 149392          	108.15      	0.00        	generale2009    	;
 149393          	107.68      	0.00        	generale2009    	;
 149394          	107.68      	0.00        	generale2009    	;
 149395          	108.90      	0.00        	generale2009    	;
 157011          	107.98      	0.00        	generale2009    	;
 157012          	108.16      	0.00        	generale2009    	;
 157013          	107.83      	0.00        	generale2009    	;
 157014          	107.99      	0.00        	generale2009    	;
 157015          	108.02      	0.00        	generale2009    	;
 157016          	107.82      	0.00        	generale2009    	;
 157017          	108.81      	0.00        	generale2009    	;
 157018          	108.79      	0.00        	generale2009    	;
 157019          	109.08      	0.00        	generale2009    	;
 157555          	109.27      	0.00        	generale2009    	;
 157556          	109.08      	0.00        	generale2009    	;
 157557          	109.08      	0.00        	generale2009    	;
 161618          	109.09      	0.00        	generale2009    	;
 161619          	109.09      	0.00        	generale2009    	;
 161621          	108.36      	0.00        	generale2009    	;
 161622          	108.30      	0.00        	generale2009    	;
 161623          	107.67      	0.00        	generale2009    	;
 161624          	107.54      	0.00        	generale2009    	;
 161629          	107.72      	0.00        	generale2009    	;
 245220          	108.13      	0.00        	generale2009    	;
 245221          	109.41      	0.00        	generale2009    	;
 245222          	109.45      	0.00        	generale2009    	;
 245223          	108.97      	0.00        	generale2009    	;
 262464          	108.16      	0.00        	generale2009    	;
 262465          	107.83      	0.00        	generale2009    	;
 262466          	108.01      	0.00        	generale2009    	;
 262467          	108.11      	0.00        	generale2009    	;
 262468          	108.35      	0.00        	generale2009    	;
 262469          	108.67      	0.00        	generale2009    	;
 262470          	108.82      	0.00        	generale2009    	;
 262471          	109.20      	0.00        	generale2009    	;
 262472          	108.99      	0.00        	generale2009    	;
 262473          	108.75      	0.00        	generale2009    	;
 262474          	109.22      	0.00        	generale2009    	;
 262475          	108.48      	0.00        	generale2009    	;
 262476          	109.20      	0.00        	generale2009    	;
 262477          	109.48      	0.00        	generale2009    	;
 262478          	109.13      	0.00        	generale2009    	;
 262479          	108.98      	0.00        	generale2009    	;
 262480          	108.96      	0.00        	generale2009    	;
 262481          	107.68      	0.00        	generale2009    	;
 262482          	107.68      	0.00        	generale2009    	;
 262483          	109.30      	0.00        	generale2009    	;
 270837          	108.91      	0.00        	generale2009    	;
 44572X          	107.98      	0.00        	generale2009    	;
 44572Y          	107.98      	0.00        	generale2009    	;
 44573X          	108.17      	0.00        	generale2009    	;
 44573Y          	108.17      	0.00        	generale2009    	;
 44574X          	107.84      	0.00        	generale2009    	;
 44574Y          	107.84      	0.00        	generale2009    	;
 44575X          	108.11      	0.00        	generale2009    	;
 44575Y          	108.11      	0.00        	generale2009    	;
 44576X          	108.34      	0.00        	generale2009    	;
 44576Y          	108.34      	0.00        	generale2009    	;
 44577X          	108.69      	0.00        	generale2009    	;
 44577Y          	108.69      	0.00        	generale2009    	;
 44578X          	108.83      	0.00        	generale2009    	;
 44578Y          	108.83      	0.00        	generale2009    	;
 44579X          	109.26      	0.00        	generale2009    	;
 44579Y          	109.26      	0.00        	generale2009    	;
 44580X          	109.41      	0.00        	generale2009    	;
 44580Y          	109.41      	0.00        	generale2009    	;
 44581X          	109.24      	0.00        	generale2009    	;
 44581Y          	109.24      	0.00        	generale2009    	;
 44582X          	108.50      	0.00        	generale2009    	;
 44582Y          	108.50      	0.00        	generale2009    	;
 44583X          	109.56      	0.00        	generale2009    	;
 44583Y          	109.56      	0.00        	generale2009    	;
 44584X          	109.23      	0.00        	generale2009    	;
 44584Y          	109.23      	0.00        	generale2009    	;
 44585X          	109.39      	0.00        	generale2009    	;
 44585Y          	109.39      	0.00        	generale2009    	;
 44586X          	110.22      	0.00        	generale2009    	;
 44586Y          	110.22      	0.00        	generale2009    	;
 44587X          	109.49      	0.00        	generale2009    	;
 44587Y          	109.49      	0.00        	generale2009    	;
 44588X          	109.08      	0.00        	generale2009    	;
 44588Y          	109.08      	0.00        	generale2009    	;
 44589X          	109.08      	0.00        	generale2009    	;
 44589Y          	109.08      	0.00        	generale2009    	;
 44590X          	108.99      	0.00        	generale2009    	;
 44590Y          	108.99      	0.00        	generale2009    	;
 44591X          	108.94      	0.00        	generale2009    	;
 44591Y          	108.94      	0.00        	generale2009    	;
 66768X          	107.98      	0.00        	generale2009    	;
 66768Y          	107.98      	0.00        	generale2009    	;
 66769X          	108.17      	0.00        	generale2009    	;
 66769Y          	108.17      	0.00        	generale2009    	;
 66770X          	107.84      	0.00        	generale2009    	;
 66770Y          	107.84      	0.00        	generale2009    	;
 66771X          	108.11      	0.00        	generale2009    	;
 66771Y          	108.11      	0.00        	generale2009    	;
 66772X          	108.34      	0.00        	generale2009    	;
 66772Y          	108.34      	0.00        	generale2009    	;
 66773X          	108.69      	0.00        	generale2009    	;
 66773Y          	108.69      	0.00        	generale2009    	;
 66774X          	108.83      	0.00        	generale2009    	;
 66774Y          	108.83      	0.00        	generale2009    	;
 66775X          	109.26      	0.00        	generale2009    	;
 66775Y          	109.26      	0.00        	generale2009    	;
 66776X          	109.41      	0.00        	generale2009    	;
 66776Y          	109.41      	0.00        	generale2009    	;
 66777X          	109.23      	0.00        	generale2009    	;
 66777Y          	109.23      	0.00        	generale2009    	;
 66778X          	108.94      	0.00        	generale2009    	;
 66778Y          	108.94      	0.00        	generale2009    	;
 66779X          	108.50      	0.00        	generale2009    	;
 66779Y          	108.50      	0.00        	generale2009    	;
 66780X          	109.56      	0.00        	generale2009    	;
 66780Y          	109.56      	0.00        	generale2009    	;
 66781X          	109.23      	0.00        	generale2009    	;
 66781Y          	109.23      	0.00        	generale2009    	;
 66782X          	109.39      	0.00        	generale2009    	;
 66782Y          	109.39      	0.00        	generale2009    	;
 66783X          	110.21      	0.00        	generale2009    	;
 66783Y          	110.21      	0.00        	generale2009    	;
 66784X          	109.48      	0.00        	generale2009    	;
 66784Y          	109.48      	0.00        	generale2009    	;
 66785X          	109.08      	0.00        	generale2009    	;
 66785Y          	109.08      	0.00        	generale2009    	;
 66786X          	108.99      	0.00        	generale2009    	;
 66786Y          	108.99      	0.00        	generale2009    	;
 66787X          	108.02      	0.00        	generale2009    	;
 66787Y          	108.02      	0.00        	generale2009    	;
 66788X          	108.00      	0.00        	generale2009    	;
 66788Y          	108.00      	0.00        	generale2009    	;
 66789X          	107.88      	0.00        	generale2009    	;
 66789Y          	107.88      	0.00        	generale2009    	;
 66790X          	107.80      	0.00        	generale2009    	;
 66790Y          	107.80      	0.00        	generale2009    	;
 66791X          	108.80      	0.00        	generale2009    	;
 66791Y          	108.80      	0.00        	generale2009    	;
 66792X          	108.88      	0.00        	generale2009    	;
 66792Y          	108.88      	0.00        	generale2009    	;
 66793X          	109.44      	0.00        	generale2009    	;
 66793Y          	109.44      	0.00        	generale2009    	;
 66794X          	109.52      	0.00        	generale2009    	;
 66794Y          	109.52      	0.00        	generale2009    	;
 66795X          	109.25      	0.00        	generale2009    	;
 66795Y          	109.25      	0.00        	generale2009    	;
 66796X          	109.23      	0.00        	generale2009    	;
 66796Y          	109.23      	0.00        	generale2009    	;
 66797X          	108.97      	0.00        	generale2009    	;
 66797Y          	108.97      	0.00        	generale2009    	;
 66798X          	109.08      	0.00        	generale2009    	;
 66798Y          	109.08      	0.00        	generale2009    	;
 66799X          	108.77      	0.00        	generale2009    	;
 66799Y          	108.77      	0.00        	generale2009    	;
 66800X          	108.79      	0.00        	generale2009    	;
 66800Y          	108.79      	0.00        	generale2009    	;
 66801X          	107.75      	0.00        	generale2009    	;
 66801Y          	107.75      	0.00        	generale2009    	;
 66802X          	108.81      	0.00        	generale2009    	;
 66802Y          	108.81      	0.00        	generale2009    	;
 66803X          	108.89      	0.00        	generale2009    	;
 66803Y          	108.89      	0.00        	generale2009    	;
 66804X          	109.34      	0.00        	generale2009    	;
 66804Y          	109.34      	0.00        	generale2009    	;
 66805X          	109.41      	0.00        	generale2009    	;
 66805Y          	109.41      	0.00        	generale2009    	;
 66807X          	109.46      	0.00        	generale2009    	;
 66807Y          	109.46      	0.00        	generale2009    	;
 66808X          	109.13      	0.00        	generale2009    	;
 66808Y          	109.13      	0.00        	generale2009    	;
 66809X          	108.70      	0.00        	generale2009    	;
 66809Y          	108.70      	0.00        	generale2009    	;
 66810X          	109.42      	0.00        	generale2009    	;
 66810Y          	109.42      	0.00        	generale2009    	;
 66811X          	107.68      	0.00        	generale2009    	;
 66811Y          	107.68      	0.00        	generale2009    	;
 66812X          	108.37      	0.00        	generale2009    	;
 66812Y          	108.37      	0.00        	generale2009    	;
 66813X          	107.69      	0.00        	generale2009    	;
 66813Y          	107.69      	0.00        	generale2009    	;
 66814X          	107.60      	0.00        	generale2009    	;
 66814Y          	107.60      	0.00        	generale2009    	;
 66815X          	108.78      	0.00        	generale2009    	;
 66815Y          	108.78      	0.00        	generale2009    	;
 69093X          	109.08      	0.00        	generale2009    	;
 69093Y          	109.08      	0.00        	generale2009    	;
 79549X          	109.08      	0.00        	generale2009    	;
 79549Y          	109.08      	0.00        	generale2009    	;
 NW001           	99.28       	0.00        	generale2009    	;
 NW002           	98.39       	0.00        	generale2009    	;
 NW003           	98.29       	0.00        	generale2009    	;
 NW004           	98.36       	0.00        	generale2009    	;
 NW005           	97.89       	0.00        	generale2009    	;
 NW006           	99.58       	0.00        	generale2009    	;
 NW007           	90.78       	0.00        	generale2009    	;
 NW008           	96.33       	0.00        	generale2009    	;
 NW009           	94.73       	0.00        	generale2009    	;
 NW010           	97.51       	0.00        	generale2009    	;
 NW011           	97.24       	0.00        	generale2009    	;
 NW012           	100.09      	0.00        	generale2009    	;
 NW013           	96.00       	0.00        	generale2009    	;
 NW014           	96.58       	0.00        	generale2009    	;
 NW015           	96.56       	0.00        	generale2009    	;
 NW016           	96.88       	0.00        	generale2009    	;
 NW017           	97.17       	0.00        	generale2009    	;
 NW018           	96.98       	0.00        	generale2009    	;
 NW019           	96.63       	0.00        	generale2009    	;
 NW020           	98.56       	0.00        	generale2009    	;
 XXXX000104      	109.24      	0.00        	generale2009    	;
 XXXX000105      	108.94      	0.00        	generale2009    	;
 XXXX000106      	108.50      	0.00        	generale2009    	;
 XXXX000107      	109.56      	0.00        	generale2009    	;
 XXXX000108      	109.23      	0.00        	generale2009    	;
 XXXX000151      	107.98      	0.00        	generale2009    	;
 XXXX000152      	108.17      	0.00        	generale2009    	;
 XXXX000153      	108.34      	0.00        	generale2009    	;
 XXXX000154      	108.68      	0.00        	generale2009    	;
 XXXX000155      	108.83      	0.00        	generale2009    	;
 XXXX000156      	109.26      	0.00        	generale2009    	;
 XXXX000157      	109.41      	0.00        	generale2009    	;
 XXXX000226      	108.99      	0.00        	generale2009    	;
 XXXX000227      	109.49      	0.00        	generale2009    	;
 XXXX000228      	109.39      	0.00        	generale2009    	;
 XXXX000229      	108.11      	0.00        	generale2009    	;
 XXXX000230      	107.84      	0.00        	generale2009    	;
 XXXX000236      	110.22      	0.00        	generale2009    	;
 XXXX000237      	109.08      	0.00        	generale2009    	;
 XXXX000238      	109.08      	0.00        	generale2009    	;
 XXXX000815      	109.08      	0.00        	generale2009    	;
 XXXX000816      	107.42      	355.74      	generale2009    	;

[RESERVOIRS]
;ID              	Head        	Pattern         
 W001            	99.28       	                	;
 W002            	98.39       	                	;
 W003            	98.29       	                	;
 W004            	98.36       	                	;
 W005            	97.89       	                	;
 W006            	99.58       	                	;
 W007            	90.78       	                	;
 W008            	96.33       	                	;
 W009            	94.73       	                	;
 W010            	97.51       	                	;
 W011            	97.24       	                	;
 W012            	100.09      	                	;
 W013            	96.00       	                	;
 W014            	96.58       	                	;
 W015            	96.56       	                	;
 W016            	96.88       	                	;
 W017            	97.17       	                	;
 W018            	96.98       	                	;
 W019            	96.63       	                	;
 W020            	98.56       	                	;

[TANKS]
;ID              	Elevation   	InitLevel   	MinLevel    	MaxLevel    	Diameter    	MinVol      	VolCurve
 T_24            	107.420000  	4.34        	1.5         	4.6         	36.45       	0.000000    	                	;

[PIPES]
;ID              	Node1           	Node2           	Length      	Diameter    	Roughness   	MinorLoss   	Status
 145785.145786.1 	145785          	145786          	16.126171   	700.000000  	1.000000    	0.000000    	Open  	;
 145787.157557.1 	145787          	157557          	0.599923    	700.000000  	1.000000    	0.000000    	Open  	;
 145788.145787.1 	145788          	145787          	16.125921   	700.000000  	1.000000    	0.000000    	Open  	;
 148657.149382.1 	148657          	149382          	32.540424   	350.000000  	1.000000    	0.000000    	Open  	;
 148657.66794Y.1 	148657          	66794Y          	8.346808    	150.000000  	1.000000    	0.000000    	Open  	;
 148658.149383.1 	148658          	149383          	165.745163  	250.000000  	1.000000    	0.000000    	Open  	;
 149377.157012.1 	149377          	157012          	106.828041  	250.000000  	1.000000    	0.000000    	Open  	;
 149377.262465.1 	149377          	262465          	4.650108    	300.000000  	1.000000    	0.000000    	Open  	;
 149379.148656.1 	149379          	148656          	202.212021  	250.000000  	1.000000    	0.000000    	Open  	;
 149379.262468.1 	149379          	262468          	0.999891    	350.000000  	1.000000    	0.000000    	Open  	;
 149380.262470.1 	149380          	262470          	0.900086    	350.000000  	1.000000    	0.000000    	Open  	;
 149384.66792Y.1 	149384          	66792Y          	21.984690   	400.000000  	1.000000    	0.000000    	Open  	;
 149386.262473.1 	149386          	262473          	136.671494  	450.000000  	1.000000    	0.000000    	Open  	;
 149388.262476.1 	149388          	262476          	1.000010    	450.000000  	1.000000    	0.000000    	Open  	;
 149391.149395.1 	149391          	149395          	32.011940   	600.000000  	1.000000    	0.000000    	Open  	;
 149392.66801X.1 	149392          	66801X          	43.539219   	500.000000  	1.000000    	0.000000    	Open  	;
 149393.262481.1 	149393          	262481          	0.444794    	600.000000  	1.000000    	0.000000    	Open  	;
 149395.270837.1 	149395          	270837          	0.903023    	500.000000  	1.000000    	0.000000    	Open  	;
 157011.149376.1 	157011          	149376          	105.702240  	200.000000  	1.000000    	0.000000    	Open  	;
 157012.262464.1 	157012          	262464          	0.599929    	250.000000  	1.000000    	0.000000    	Open  	;
 157013.262465.1 	157013          	262465          	0.599885    	300.000000  	1.000000    	0.000000    	Open  	;
 157014.157013.1 	157014          	157013          	77.329102   	300.000000  	1.000000    	0.000000    	Open  	;
 157015.149378.1 	157015          	149378          	17.544792   	300.000000  	1.000000    	0.000000    	Open  	;
 157016.66815Y.1 	157016          	66815Y          	201.137970  	400.000000  	1.000000    	0.000000    	Open  	;
 157017.145788.1 	157017          	145788          	0.600106    	700.000000  	1.000000    	0.000000    	Open  	;
 157017.66800Y.1 	157017          	66800Y          	0.550092    	700.000000  	1.000000    	0.000000    	Open  	;
 157018.145785.1 	157018          	145785          	0.599918    	700.000000  	1.000000    	0.000000    	Open  	;
 157018.66799Y.1 	157018          	66799Y          	0.550093    	700.000000  	1.000000    	0.000000    	Open  	;
 157019.145786.1 	157019          	145786          	0.599916    	700.000000  	1.000000    	0.000000    	Open  	;
 157555.149380.1 	157555          	149380          	188.730377  	200.000000  	1.000000    	0.000000    	Open  	;
 157555.66775X.1 	157555          	66775X          	3.344833    	200.000000  	1.000000    	0.000000    	Open  	;
 157556.149390.1 	157556          	149390          	113.283272  	200.000000  	1.000000    	0.000000    	Open  	;
 161618.XXXX000815.1	161618          	XXXX000815      	17.625671   	700.000000  	1.000000    	0.000000    	Open  	;
 161619.66798X.1 	161619          	66798X          	94.649696   	700.000000  	1.000000    	0.000000    	Open  	;
 161619.XXXX000815.1	161619          	XXXX000815      	19.290340   	700.000000  	1.000000    	0.000000    	Open  	;
 161621.T_24.1   	161621          	T_24            	18.794044   	500.000000  	1.000000    	0.000000    	Open  	;
 161622.T_24.1   	161622          	T_24            	18.335171   	450.000000  	1.000000    	0.000000    	Open  	;
 161623.66813X.1 	161623          	66813X          	4.228006    	450.000000  	1.000000    	0.000000    	Open  	;
 161623.T_24.1   	161623          	T_24            	17.214481   	450.000000  	1.000000    	0.000000    	Open  	;
 161624.66814X.1 	161624          	66814X          	5.201660    	400.000000  	1.000000    	0.000000    	Open  	;
 161624.T_24.1   	161624          	T_24            	17.249899   	400.000000  	1.000000    	0.000000    	Open  	;
 245220.149391.1 	245220          	149391          	1.228616    	700.000000  	1.000000    	0.000000    	Open  	;
 245220.149392.1 	245220          	149392          	1.406071    	700.000000  	1.000000    	0.000000    	Open  	;
 245221.262480.1 	245221          	262480          	132.706223  	450.000000  	1.000000    	0.000000    	Open  	;
 245221.66810X.1 	245221          	66810X          	1.156520    	450.000000  	1.000000    	0.000000    	Open  	;
 245222.262483.1 	245222          	262483          	11.062175   	500.000000  	1.000000    	0.000000    	Open  	;
 245223.66803X.1 	245223          	66803X          	1.056899    	500.000000  	1.000000    	0.000000    	Open  	;
 245223.66805Y.1 	245223          	66805Y          	7.626889    	500.000000  	1.000000    	0.000000    	Open  	;
 262464.149376.1 	262464          	149376          	3.749062    	250.000000  	1.000000    	0.000000    	Open  	;
 262466.66787Y.1 	262466          	66787Y          	1.436782    	300.000000  	1.000000    	0.000000    	Open  	;
 262466.66788X.1 	262466          	66788X          	1.369065    	300.000000  	1.000000    	0.000000    	Open  	;
 262466.66789X.1 	262466          	66789X          	22.839172   	400.000000  	1.000000    	0.000000    	Open  	;
 262467.149378.1 	262467          	149378          	1.585510    	350.000000  	1.000000    	0.000000    	Open  	;
 262468.262467.1 	262468          	262467          	105.693672  	350.000000  	1.000000    	0.000000    	Open  	;
 262469.149381.1 	262469          	149381          	5.703974    	700.000000  	1.000000    	0.000000    	Open  	;
 262469.66812Y.1 	262469          	66812Y          	21.387651   	700.000000  	1.000000    	0.000000    	Open  	;
 262469.66815X.1 	262469          	66815X          	6.966879    	400.000000  	1.000000    	0.000000    	Open  	;
 262470.149381.1 	262470          	149381          	0.700102    	350.000000  	1.000000    	0.000000    	Open  	;
 262471.149382.1 	262471          	149382          	0.900056    	400.000000  	1.000000    	0.000000    	Open  	;
 262471.262472.1 	262471          	262472          	161.819031  	400.000000  	1.000000    	0.000000    	Open  	;
 262472.66792X.1 	262472          	66792X          	25.126724   	400.000000  	1.000000    	0.000000    	Open  	;
 262473.149384.1 	262473          	149384          	1.000047    	450.000000  	1.000000    	0.000000    	Open  	;
 262474.149385.1 	262474          	149385          	0.900078    	250.000000  	1.000000    	0.000000    	Open  	;
 262474.66791X.1 	262474          	66791X          	196.859100  	250.000000  	1.000000    	0.000000    	Open  	;
 262475.149386.1 	262475          	149386          	0.899981    	500.000000  	1.000000    	0.000000    	Open  	;
 262476.262478.1 	262476          	262478          	48.225285   	450.000000  	1.000000    	0.000000    	Open  	;
 262477.149389.1 	262477          	149389          	202.881302  	350.000000  	1.000000    	0.000000    	Open  	;
 262477.66796Y.1 	262477          	66796Y          	77.512291   	350.000000  	1.000000    	0.000000    	Open  	;
 262478.262480.1 	262478          	262480          	96.978836   	450.000000  	1.000000    	0.000000    	Open  	;
 262479.149390.1 	262479          	149390          	1.000036    	250.000000  	1.000000    	0.000000    	Open  	;
 262479.66797Y.1 	262479          	66797Y          	18.300716   	250.000000  	1.000000    	0.000000    	Open  	;
 262481.149394.1 	262481          	149394          	0.444605    	600.000000  	1.000000    	0.000000    	Open  	;
 262482.149394.1 	262482          	149394          	0.988701    	700.000000  	1.000000    	0.000000    	Open  	;
 270837.245223.1 	270837          	245223          	15.999852   	500.000000  	1.000000    	0.000000    	Open  	;
 270837.66804Y.1 	270837          	66804Y          	7.263489    	450.000000  	1.000000    	0.000000    	Open  	;
 44572X.66768Y.1 	44572X          	66768Y          	0.399835    	200.000000  	1.000000    	0.000000    	Open  	;
 44573X.66769Y.1 	44573X          	66769Y          	0.400031    	200.000000  	1.000000    	0.000000    	Open  	;
 44574X.66770Y.1 	44574X          	66770Y          	0.399953    	200.000000  	1.000000    	0.000000    	Open  	;
 44575X.66771Y.1 	44575X          	66771Y          	0.399988    	200.000000  	1.000000    	0.000000    	Open  	;
 44576X.66772Y.1 	44576X          	66772Y          	0.400069    	200.000000  	1.000000    	0.000000    	Open  	;
 44577Y.66773X.1 	44577Y          	66773X          	0.400053    	200.000000  	1.000000    	0.000000    	Open  	;
 44578X.66774Y.1 	44578X          	66774Y          	0.399809    	150.000000  	1.000000    	0.000000    	Open  	;
 44579X.66775Y.1 	44579X          	66775Y          	0.400030    	200.000000  	1.000000    	0.000000    	Open  	;
 44580X.66776Y.1 	44580X          	66776Y          	0.400037    	200.000000  	1.000000    	0.000000    	Open  	;
 44581Y.66777X.1 	44581Y          	66777X          	0.399943    	200.000000  	1.000000    	0.000000    	Open  	;
 44582Y.66779X.1 	44582Y          	66779X          	0.399943    	200.000000  	1.000000    	0.000000    	Open  	;
 44583Y.66780X.1 	44583Y          	66780X          	0.399835    	200.000000  	1.000000    	0.000000    	Open  	;
 44584Y.66781X.1 	44584Y          	66781X          	0.399838    	200.000000  	1.000000    	0.000000    	Open  	;
 44585Y.66782X.1 	44585Y          	66782X          	0.400069    	200.000000  	1.000000    	0.000000    	Open  	;
 44586X.66783Y.1 	44586X          	66783Y          	0.400039    	200.000000  	1.000000    	0.000000    	Open  	;
 44587X.66784Y.1 	44587X          	66784Y          	0.399950    	200.000000  	1.000000    	0.000000    	Open  	;
 44588Y.66785X.1 	44588Y          	66785X          	0.400108    	200.000000  	1.000000    	0.000000    	Open  	;
 44589X.69093Y.1 	44589X          	69093Y          	0.400003    	200.000000  	1.000000    	0.000000    	Open  	;
 44590X.66786Y.1 	44590X          	66786Y          	0.399946    	200.000000  	1.000000    	0.000000    	Open  	;
 44591Y.66778X.1 	44591Y          	66778X          	0.400054    	200.000000  	1.000000    	0.000000    	Open  	;
 66768X.157011.1 	66768X          	157011          	3.469063    	200.000000  	1.000000    	0.000000    	Open  	;
 66769X.262464.1 	66769X          	262464          	1.651398    	200.000000  	1.000000    	0.000000    	Open  	;
 66770X.262465.1 	66770X          	262465          	2.469101    	200.000000  	1.000000    	0.000000    	Open  	;
 66771X.262467.1 	66771X          	262467          	3.289352    	200.000000  	1.000000    	0.000000    	Open  	;
 66772X.262468.1 	66772X          	262468          	3.270753    	200.000000  	1.000000    	0.000000    	Open  	;
 66773Y.148656.1 	66773Y          	148656          	3.883636    	200.000000  	1.000000    	0.000000    	Open  	;
 66774X.262470.1 	66774X          	262470          	2.609900    	150.000000  	1.000000    	0.000000    	Open  	;
 66776X.149383.1 	66776X          	149383          	3.958769    	200.000000  	1.000000    	0.000000    	Open  	;
 66777Y.262471.1 	66777Y          	262471          	10.815863   	200.000000  	1.000000    	0.000000    	Open  	;
 66778Y.262472.1 	66778Y          	262472          	6.658901    	200.000000  	1.000000    	0.000000    	Open  	;
 66779Y.262475.1 	66779Y          	262475          	6.469362    	200.000000  	1.000000    	0.000000    	Open  	;
 66780Y.149385.1 	66780Y          	149385          	121.217789  	200.000000  	1.000000    	0.000000    	Open  	;
 66781Y.262474.1 	66781Y          	262474          	3.814433    	200.000000  	1.000000    	0.000000    	Open  	;