[TITLE]


[JUNCTIONS]
;ID              	Elev        	Demand      	Pattern         
 100345X         	110.14      	0.00        	generale2009    	;
 100345Y         	110.14      	0.00        	generale2009    	;
 103571X         	109.25      	0.00        	generale2009    	;
 103571Y         	109.25      	0.00        	generale2009    	;
 103572X         	109.26      	0.00        	generale2009    	;
 103572Y         	109.26      	0.00        	generale2009    	;
 103573X         	109.27      	0.00        	generale2009    	;
 103573Y         	109.27      	0.00        	generale2009    	;
 106453X         	107.02      	0.00        	generale2009    	;
 106453Y         	107.02      	0.00        	generale2009    	;
 145500          	107.08      	0.00        	generale2009    	;
 145501          	106.79      	0.00        	generale2009    	;
 145502          	106.79      	0.00        	generale2009    	;
 145503          	106.79      	0.00        	generale2009    	;
 145504          	106.79      	0.00        	generale2009    	;
 145505          	106.66      	0.00        	generale2009    	;
 145506          	106.66      	0.00        	generale2009    	;
 145507          	106.66      	0.00        	generale2009    	;
 145508          	106.66      	0.00        	generale2009    	;
 145509          	106.65      	0.00        	generale2009    	;
 145510          	106.65      	0.00        	generale2009    	;
 145511          	106.65      	0.00        	generale2009    	;
 145512          	106.65      	0.00        	generale2009    	;
 145513          	108.86      	0.00        	generale2009    	;
 145514          	108.86      	0.00        	generale2009    	;
 145716          	110.00      	0.00        	generale2009    	;
 145717          	110.00      	0.00        	generale2009    	;
 145718          	109.81      	0.00        	generale2009    	;
 145719          	109.79      	0.00        	generale2009    	;
 145720          	109.50      	0.00        	generale2009    	;
 145721          	109.44      	0.00        	generale2009    	;
 145722          	109.86      	0.00        	generale2009    	;
 145723          	109.74      	0.00        	generale2009    	;
 145724          	108.97      	0.00        	generale2009    	;
 145725          	108.17      	0.00        	generale2009    	;
 145726          	108.33      	0.00        	generale2009    	;
 145727          	108.35      	0.00        	generale2009    	;
 145728          	107.45      	0.00        	generale2009    	;
 145732          	109.74      	0.00        	generale2009    	;
 145733          	109.74      	0.00        	generale2009    	;
 145737          	108.70      	0.00        	generale2009    	;
 145738          	109.08      	0.00        	generale2009    	;
 145739          	108.36      	0.00        	generale2009    	;
 145740          	108.36      	0.00        	generale2009    	;
 145785          	108.81      	0.00        	generale2009    	;
 145786          	109.08      	0.00        	generale2009    	;
 145787          	109.07      	0.00        	generale2009    	;
 145788          	108.83      	0.00        	generale2009    	;
 145795          	108.86      	0.00        	generale2009    	;
 146029          	102.67      	0.58        	generale2009    	;
 146030          	102.94      	0.00        	generale2009    	;
 146031          	102.96      	0.00        	generale2009    	;
 146032          	105.98      	0.00        	generale2009    	;
 146033          	105.83      	0.20        	generale2009    	;
 146034          	105.28      	0.24        	generale2009    	;
 146035          	104.90      	0.00        	generale2009    	;
 146036          	105.29      	0.00        	generale2009    	;
 146037          	105.06      	0.00        	generale2009    	;
 146038          	104.79      	0.01        	generale2009    	;
 146039          	102.13      	0.00        	generale2009    	;
 146040          	104.80      	0.00        	generale2009    	;
 146041          	103.22      	0.00        	generale2009    	;
 146042          	103.67      	0.00        	generale2009    	;
 146043          	103.53      	0.00        	generale2009    	;
 146044          	103.29      	0.00        	generale2009    	;
 146045          	103.33      	0.00        	generale2009    	;
 146046          	101.87      	0.00        	generale2009    	;
 146047          	102.57      	0.00        	generale2009    	;
 146048          	102.38      	0.00        	generale2009    	;
 146049          	100.91      	0.05        	generale2009    	;
 146050          	103.02      	0.11        	generale2009    	;
 146051          	106.42      	0.00        	generale2009    	;
 146052          	104.47      	0.00        	generale2009    	;
 146053          	102.93      	0.00        	generale2009    	;
 146054          	104.84      	0.00        	generale2009    	;
 146055          	102.11      	0.00        	generale2009    	;
 146056          	100.24      	0.03        	generale2009    	;
 146057          	100.99      	0.00        	generale2009    	;
 146058          	102.00      	0.00        	generale2009    	;
 146059          	101.14      	0.00        	generale2009    	;
 146060          	101.19      	0.00        	generale2009    	;
 146061          	101.19      	0.00        	generale2009    	;
 146062          	102.07      	0.00        	generale2009    	;
 146063          	102.03      	0.00        	generale2009    	;
 146064          	102.02      	0.00        	generale2009    	;
 146065          	102.02      	0.00        	generale2009    	;
 146066          	102.02      	0.14        	generale2009    	;
 146067          	102.02      	0.00        	generale2009    	;
 146068          	103.06      	0.00        	generale2009    	;
 146069          	100.47      	0.00        	generale2009    	;
 146070          	103.62      	0.00        	generale2009    	;
 146071          	102.70      	0.00        	generale2009    	;
 146072          	103.49      	0.00        	generale2009    	;
 146073          	101.19      	0.00        	generale2009    	;
 146074          	103.49      	0.00        	generale2009    	;
 146075          	103.22      	0.00        	generale2009    	;
 146076          	102.56      	0.00        	generale2009    	;
 146077          	104.93      	0.00        	generale2009    	;
 146078          	108.38      	0.00        	generale2009    	;
 146079          	108.46      	0.00        	generale2009    	;
 146080          	108.11      	0.00        	generale2009    	;
 146081          	107.87      	0.00        	generale2009    	;
 146082          	108.03      	0.00        	generale2009    	;
 146083          	107.54      	0.00        	generale2009    	;
 146110          	110.69      	0.00        	generale2009    	;
 146111          	110.83      	0.00        	generale2009    	;
 146112          	110.78      	0.00        	generale2009    	;
 146113          	109.13      	0.00        	generale2009    	;
 146114          	109.12      	0.00        	generale2009    	;
 146115          	109.22      	0.00        	generale2009    	;
 146116          	108.71      	0.00        	generale2009    	;
 146117          	108.49      	0.00        	generale2009    	;
 146118          	108.21      	0.00        	generale2009    	;
 146119          	108.29      	0.17        	generale2009    	;
 146120          	110.93      	0.10        	generale2009    	;
 146122          	110.57      	0.00        	generale2009    	;
 146123          	109.30      	0.02        	generale2009    	;
 146124          	110.69      	0.00        	generale2009    	;
 146125          	109.93      	0.00        	generale2009    	;
 146126          	109.09      	0.00        	generale2009    	;
 146127          	109.48      	0.00        	generale2009    	;
 146128          	109.64      	0.00        	generale2009    	;
 146129          	110.17      	0.00        	generale2009    	;
 146130          	110.03      	0.00        	generale2009    	;
 146131          	110.03      	0.00        	generale2009    	;
 146133          	109.98      	0.08        	generale2009    	;
 146134          	109.99      	0.00        	generale2009    	;
 146135          	110.01      	0.00        	generale2009    	;
 146136          	108.94      	0.00        	generale2009    	;
 146137          	109.42      	0.00        	generale2009    	;
 146138          	109.71      	0.00        	generale2009    	;
 146139          	108.81      	0.00        	generale2009    	;
 146140          	108.90      	0.00        	generale2009    	;
 146141          	110.08      	0.00        	generale2009    	;
 146143          	110.71      	0.00        	generale2009    	;
 146144          	110.45      	0.00        	generale2009    	;
 146145          	108.81      	0.21        	generale2009    	;
 146146          	110.07      	0.00        	generale2009    	;
 146147          	110.01      	0.00        	generale2009    	;
 146148          	110.09      	0.00        	generale2009    	;
 146149          	110.19      	0.00        	generale2009    	;
 146159          	110.07      	0.00        	generale2009    	;
 146161          	111.07      	0.00        	generale2009    	;
 146170          	106.92      	0.00        	generale2009    	;
 146171          	105.98      	0.00        	generale2009    	;
 146172          	105.82      	0.00        	generale2009    	;
 146179          	106.63      	0.00        	generale2009    	;
 146180          	106.74      	0.00        	generale2009    	;
 146182          	105.81      	0.00        	generale2009    	;
 146183          	106.65      	0.00        	generale2009    	;
 146186          	108.92      	0.00        	generale2009    	;
 146187          	109.59      	0.00        	generale2009    	;
 146188          	109.48      	0.00        	generale2009    	;
 146189          	110.06      	0.00        	generale2009    	;
 146190          	109.89      	0.00        	generale2009    	;
 146191          	109.91      	0.00        	generale2009    	;
 146192          	109.49      	0.00        	generale2009    	;
 146193          	109.69      	0.00        	generale2009    	;
 146208          	106.04      	0.00        	generale2009    	;
 146250          	106.90      	0.00        	generale2009    	;
 146251          	106.31      	0.05        	generale2009    	;
 146252          	105.56      	0.00        	generale2009    	;
 146255          	105.90      	0.00        	generale2009    	;
 146256          	106.30      	0.00        	generale2009    	;
 146257          	106.04      	0.00        	generale2009    	;
 146269          	110.50      	0.00        	generale2009    	;
 146270          	110.50      	0.00        	generale2009    	;
 146273          	110.31      	0.00        	generale2009    	;
 146274          	105.98      	0.00        	generale2009    	;
 146280          	106.02      	0.00        	generale2009    	;
 146281          	106.27      	0.00        	generale2009    	;
 146300          	107.06      	0.60        	generale2009    	;
 146301          	109.50      	0.76        	generale2009    	;
 146302          	108.90      	0.32        	generale2009    	;
 146303          	108.40      	0.00        	generale2009    	;
 146304          	107.40      	0.00        	generale2009    	;
 146305          	107.12      	0.00        	generale2009    	;
 146306          	104.38      	0.00        	generale2009    	;
 146307          	105.76      	0.91        	generale2009    	;
 146308          	105.97      	0.00        	generale2009    	;
 146309          	105.97      	0.00        	generale2009    	;
 146310          	104.10      	0.00        	generale2009    	;
 146311          	109.55      	0.00        	generale2009    	;
 146312          	109.36      	0.00        	generale2009    	;
 146313          	107.78      	0.00        	generale2009    	;
 146324          	107.36      	0.00        	generale2009    	;
 146341          	110.32      	0.00        	generale2009    	;
 146342          	110.70      	0.00        	generale2009    	;
 146343          	110.70      	0.00        	generale2009    	;
 146344          	110.68      	0.00        	generale2009    	;
 146345          	109.76      	0.00        	generale2009    	;
 146346          	109.76      	0.00        	generale2009    	;
 146347          	110.74      	0.00        	generale2009    	;
 146348          	110.49      	0.93        	generale2009    	;
 146349          	110.12      	0.00        	generale2009    	;
 146350          	110.14      	0.24        	generale2009    	;
 146352          	109.46      	0.26        	generale2009    	;
 146353          	109.27      	0.00        	generale2009    	;
 146354          	108.93      	0.00        	generale2009    	;
 146355          	109.45      	0.00        	generale2009    	;
 146356          	109.45      	0.00        	generale2009    	;
 146357          	108.16      	0.17        	generale2009    	;
 146358          	109.94      	0.00        	generale2009    	;
 146475          	110.16      	0.03        	generale2009    	;
 146476          	110.00      	0.14        	generale2009    	;
 146477          	110.00      	0.04        	generale2009    	;
 146478          	109.02      	0.34        	generale2009    	;
 146479          	108.70      	0.00        	generale2009    	;
 146480          	109.28      	0.00        	generale2009    	;
 146481          	108.60      	0.00        	generale2009    	;
 146482          	109.31      	0.00        	generale2009    	;
 146483          	109.32      	0.00        	generale2009    	;
 146484          	109.62      	0.00        	generale2009    	;
 146485          	109.00      	0.00        	generale2009    	;
 146486          	109.58      	0.00        	generale2009    	;
 146487          	109.58      	0.00        	generale2009    	;
 146488          	109.63      	0.00        	generale2009    	;
 146489          	108.68      	0.00        	generale2009    	;
 146490          	108.38      	0.12        	generale2009    	;
 146491          	108.37      	0.06        	generale2009    	;
 146493          	108.36      	0.02        	generale2009    	;
 146495          	108.97      	0.16        	generale2009    	;
 146496          	109.39      	0.00        	generale2009    	;
 146497          	110.13      	0.00        	generale2009    	;
 146498          	109.06      	0.00        	generale2009    	;
 146499          	102.44      	0.00        	generale2009    	;
 146500          	102.89      	0.00        	generale2009    	;
 146501          	100.96      	0.00        	generale2009    	;
 146502          	100.65      	0.00        	generale2009    	;
 146503          	100.32      	0.00        	generale2009    	;
 146504          	100.52      	0.00        	generale2009    	;
 146505          	100.96      	0.00        	generale2009    	;
 146506          	102.37      	0.09        	generale2009    	;
 146507          	109.61      	0.03        	generale2009    	;
 146508          	110.33      	0.00        	generale2009    	;
 146509          	109.80      	0.00        	generale2009    	;
 146510          	111.07      	0.00        	generale2009    	;
 146512          	107.02      	0.00        	generale2009    	;
 146513          	104.45      	0.06        	generale2009    	;
 146998          	109.73      	0.00        	generale2009    	;
 146999          	109.74      	0.00        	generale2009    	;
 147031          	110.49      	0.00        	generale2009    	;
 147033          	105.40      	0.00        	generale2009    	;
 147034          	108.76      	0.00        	generale2009    	;
 147035          	109.87      	0.01        	generale2009    	;
 147036          	109.60      	0.00        	generale2009    	;
 147037          	109.54      	0.09        	generale2009    	;
 147038          	106.70      	0.00        	generale2009    	;
 147039          	105.68      	0.00        	generale2009    	;
 147040          	109.26      	0.00        	generale2009    	;
 147041          	109.22      	0.00        	generale2009    	;
 147042          	109.22      	0.00        	generale2009    	;
 147045          	108.57      	0.00        	generale2009    	;
 147059          	108.52      	0.02        	generale2009    	;
 147060          	108.53      	0.01        	generale2009    	;
 147061          	107.94      	0.00        	generale2009    	;
 147062          	108.14      	0.00        	generale2009    	;
 147064          	110.06      	0.00        	generale2009    	;
 147843          	104.65      	0.00        	generale2009    	;
 148656          	108.71      	0.00        	generale2009    	;
 148657          	109.44      	0.00        	generale2009    	;
 148658          	109.40      	0.00        	generale2009    	;
 148899          	106.17      	0.24        	generale2009    	;
 148900          	106.56      	0.00        	generale2009    	;
 148901          	105.97      	0.00        	generale2009    	;
 148902          	106.86      	0.14        	generale2009    	;
 148903          	106.99      	0.00        	generale2009    	;
 148904          	106.61      	0.55        	generale2009    	;
 148905          	107.02      	0.00        	generale2009    	;
 148906          	106.52      	0.00        	generale2009    	;
 148907          	106.52      	0.06        	generale2009    	;
 148908          	106.52      	0.06        	generale2009    	;
 148909          	106.52      	0.00        	generale2009    	;
 148910          	106.92      	0.00        	generale2009    	;
 148911          	106.49      	0.00        	generale2009    	;
 149048          	107.01      	0.00        	generale2009    	;
 149093          	106.65      	0.00        	generale2009    	;
 149094          	106.65      	0.00        	generale2009    	;
 149095          	106.65      	0.00        	generale2009    	;
 149096          	106.65      	0.00        	generale2009    	;
 149097          	106.65      	0.00        	generale2009    	;
 149098          	106.65      	0.00        	generale2009    	;
 149099          	106.65      	0.00        	generale2009    	;
 149100          	106.65      	0.00        	generale2009    	;
 149101          	106.65      	0.00        	generale2009    	;
 149102          	106.65      	0.00        	generale2009    	;
 149103          	108.86      	0.00        	generale2009    	;
 149104          	108.86      	0.00        	generale2009    	;
 149225          	105.98      	0.22        	generale2009    	;
 149226          	106.42      	0.00        	generale2009    	;
 149227          	106.68      	0.13        	generale2009    	;
 149301          	107.13      	0.00        	generale2009    	;
 149302          	108.01      	0.00        	generale2009    	;
 149376          	108.17      	0.00        	generale2009    	;
 149377          	107.86      	0.00        	generale2009    	;
 149378          	108.11      	0.00        	generale2009    	;
 149379          	108.35      	0.00        	generale2009    	;
 149380          	108.82      	0.00        	generale2009    	;
 149381          	108.81      	0.00        	generale2009    	;
 149382          	109.20      	0.00        	generale2009    	;
 149383          	109.38      	0.00        	generale2009    	;
 149384          	108.75      	0.00        	generale2009    	;
 149385          	109.22      	0.00        	generale2009    	;
 149386          	108.49      	0.00        	generale2009    	;
 149387          	109.41      	0.00        	generale2009    	;
 149388          	109.20      	0.00        	generale2009    	;
 149389          	110.20      	0.00        	generale2009    	;
 149390          	108.99      	0.00        	generale2009    	;
 149391          	108.12      	0.00        	generale2009    	;
 149392          	108.15      	0.00        	generale2009    	;
 149393          	107.68      	0.00        	generale2009    	;
 149394          	107.68      	0.00        	generale2009    	;
 149395          	108.90      	0.00        	generale2009    	;
 151570          	108.32      	0.00        	generale2009    	;
 151571          	108.48      	0.00        	generale2009    	;
 151577          	107.95      	0.00        	generale2009    	;
 151578          	106.40      	0.00        	generale2009    	;
 151583          	109.64      	0.00        	generale2009    	;
 151676          	106.37      	0.00        	generale2009    	;
 151678          	105.40      	0.00        	generale2009    	;
 151718          	104.72      	0.00        	generale2009    	;
 151925          	104.91      	0.00        	generale2009    	;
 151926          	106.14      	0.00        	generale2009    	;
 151927          	102.85      	0.00        	generale2009    	;
 151928          	102.94      	0.86        	generale2009    	;
 151929          	106.10      	0.09        	generale2009    	;
 151930          	105.96      	0.00        	generale2009    	;
 151931          	105.38      	0.00        	generale2009    	;
 151932          	104.82      	0.00        	generale2009    	;
 151933          	102.80      	0.08        	generale2009    	;
 151934          	102.78      	0.00        	generale2009    	;
 151935          	103.50      	0.00        	generale2009    	;
 151936          	104.71      	0.00        	generale2009    	;
 151937          	104.72      	0.00        	generale2009    	;
 151938          	104.88      	0.00        	generale2009    	;
 151939          	104.92      	0.00        	generale2009    	;
 151940          	101.72      	0.00        	generale2009    	;
 151941          	101.71      	0.00        	generale2009    	;
 151942          	101.59      	0.00        	generale2009    	;
 151943          	101.59      	0.00        	generale2009    	;
 151944          	100.46      	0.00        	generale2009    	;
 151945          	100.21      	0.09        	generale2009    	;
 151946          	104.65      	0.00        	generale2009    	;
 151947          	104.05      	0.54        	generale2009    	;
 151948          	103.25      	0.00        	generale2009    	;
 151949          	103.20      	0.00        	generale2009    	;
 151950          	103.20      	0.58        	generale2009    	;
 151951          	103.45      	0.00        	generale2009    	;
 151952          	103.43      	0.00        	generale2009    	;
 151953          	103.59      	0.00        	generale2009    	;
 151954          	103.24      	0.00        	generale2009    	;
 151955          	103.22      	0.00        	generale2009    	;
 151956          	103.23      	0.00        	generale2009    	;
 151957          	103.24      	0.00        	generale2009    	;
 151958          	103.24      	0.00        	generale2009    	;
 151959          	103.25      	0.00        	generale2009    	;
 151960          	103.25      	0.00        	generale2009    	;
 151961          	103.26      	1.03        	generale2009    	;
 151962          	103.28      	0.00        	generale2009    	;
 151963          	102.88      	0.00        	generale2009    	;
 151964          	102.89      	0.00        	generale2009    	;
 151965          	102.95      	0.00        	generale2009    	;
 151966          	102.94      	0.00        	generale2009    	;
 151967          	102.93      	0.00        	generale2009    	;
 151968          	102.93      	0.00        	generale2009    	;
 151969          	102.95      	0.89        	generale2009    	;
 151970          	102.96      	0.00        	generale2009    	;
 151971          	102.95      	0.74        	generale2009    	;
 151972          	102.97      	0.00        	generale2009    	;
 151973          	102.97      	0.00        	generale2009    	;
 151974          	102.94      	0.00        	generale2009    	;
 151975          	102.94      	0.38        	generale2009    	;
 151976          	102.98      	0.00        	generale2009    	;
 151977          	102.97      	0.00        	generale2009    	;
 151978          	102.97      	0.00        	generale2009    	;
 151979          	102.37      	0.00        	generale2009    	;
 151980          	102.22      	0.00        	generale2009    	;
 151981          	101.83      	0.00        	generale2009    	;
 151982          	101.77      	0.00        	generale2009    	;
 151983          	101.34      	0.00        	generale2009    	;
 151984          	102.63      	0.00        	generale2009    	;
 151985          	101.38      	0.08        	generale2009    	;
 151986          	101.07      	0.00        	generale2009    	;
 151987          	101.08      	0.00        	generale2009    	;
 151988          	101.19      	0.00        	generale2009    	;
 151989          	104.49      	0.00        	generale2009    	;
 151990          	104.42      	0.00        	generale2009    	;
 151991          	104.45      	0.00        	generale2009    	;
 151992          	104.53      	0.93        	generale2009    	;
 151993          	104.50      	0.00        	generale2009    	;
 151994          	104.35      	0.91        	generale2009    	;
 151995          	104.40      	0.00        	generale2009    	;
 151996          	103.88      	0.00        	generale2009    	;
 151997          	103.87      	0.00        	generale2009    	;
 151998          	103.45      	0.00        	generale2009    	;
 151999          	103.44      	0.00        	generale2009    	;
 152000          	103.15      	0.00        	generale2009    	;
 152001          	103.11      	0.00        	generale2009    	;
 152002          	103.29      	1.28        	generale2009    	;
 152003          	103.18      	0.00        	generale2009    	;
 152004          	101.44      	0.00        	generale2009    	;
 152005          	101.82      	0.06        	generale2009    	;
 152007          	103.46      	0.00        	generale2009    	;
 152014          	103.57      	0.00        	generale2009    	;
 152015          	103.44      	0.00        	generale2009    	;
 152016          	103.42      	0.00        	generale2009    	;
 152017          	103.54      	5.43        	generale2009    	;
 152018          	103.84      	0.00        	generale2009    	;
 152019          	105.32      	0.00        	generale2009    	;
 152020          	105.30      	0.00        	generale2009    	;
 152021          	104.25      	0.00        	generale2009    	;
 152022          	104.27      	1.54        	generale2009    	;
 152023          	103.19      	0.00        	generale2009    	;
 152024          	103.27      	0.00        	generale2009    	;
 152025          	103.47      	0.41        	generale2009    	;
 152026          	103.42      	0.00        	generale2009    	;
 152027          	103.38      	0.00        	generale2009    	;
 152028          	103.27      	0.00        	generale2009    	;
 152029          	103.25      	0.00        	generale2009    	;
 152030          	103.37      	0.00        	generale2009    	;
 152031          	104.33      	0.00        	generale2009    	;
 152032          	104.52      	0.00        	generale2009    	;
 152033          	104.51      	0.00        	generale2009    	;
 152034          	104.50      	0.00        	generale2009    	;
 152035          	104.49      	0.00        	generale2009    	;
 152036          	104.38      	0.59        	generale2009    	;
 152037          	103.76      	0.00        	generale2009    	;
 152038          	103.17      	0.00        	generale2009    	;
 152039          	103.21      	0.00        	generale2009    	;
 152040          	104.54      	0.00        	generale2009    	;
 152041          	110.62      	0.00        	generale2009    	;
 152042          	110.26      	0.61        	generale2009    	;
 152043          	110.24      	0.00        	generale2009    	;
 152044          	109.68      	0.00        	generale2009    	;
 152045          	109.70      	0.10        	generale2009    	;
 152046          	109.70      	0.00        	generale2009    	;
 152060          	109.71      	0.00        	generale2009    	;
 152061          	109.91      	0.07        	generale2009    	;
 152062          	108.60      	0.00        	generale2009    	;
 152063          	109.01      	0.00        	generale2009    	;
 152064          	109.76      	0.00        	generale2009    	;
 152065          	110.10      	0.00        	generale2009    	;
 152066          	109.96      	0.05        	generale2009    	;
 152067          	109.97      	0.00        	generale2009    	;
 152068          	109.91      	0.00        	generale2009    	;
 152069          	109.19      	0.00        	generale2009    	;
 152070          	109.11      	0.00        	generale2009    	;
 152071          	109.06      	0.00        	generale2009    	;
 152072          	109.06      	0.00        	generale2009    	;
 152073          	109.93      	0.00        	generale2009    	;
 152074          	104.75      	0.00        	generale2009    	;
 152075          	104.73      	0.00        	generale2009    	;
 152076          	104.72      	0.00        	generale2009    	;
 152077          	107.92      	0.00        	generale2009    	;
 152078          	105.83      	0.00        	generale2009    	;
 152079          	105.84      	0.00        	generale2009    	;
 152080          	110.07      	0.00        	generale2009    	;
 152081          	110.03      	0.18        	generale2009    	;
 152082          	110.00      	0.00        	generale2009    	;
 152083          	109.91      	0.30        	generale2009    	;
 152084          	109.32      	0.00        	generale2009    	;
 152085          	109.36      	0.91        	generale2009    	;
 152086          	109.37      	0.00        	generale2009    	;
 152087          	108.93      	0.53        	generale2009    	;
 152088          	110.41      	0.00        	generale2009    	;
 152089          	110.08      	0.00        	generale2009    	;
 152090          	109.94      	0.00        	generale2009    	;